Circuit: * D:\0Uczelnia\SAiC\cw5\monostabilny.asc

Limiting rise time of source v2 to 5e-007
Limiting fall time of source v2 to 5e-007
WARNING: Node NC_02 is floating.

WARNING: Less than two connections to node NC_01.  This node is used by R3.
WARNING: Less than two connections to node NC_02.  This node is used by R3.
Direct Newton iteration for .op point succeeded.

Date: Mon Jun 08 08:15:32 2020
Total elapsed time: 0.189 seconds.

tnom = 27
temp = 27
method = modified trap
totiter = 5235
traniter = 5213
tranpoints = 1861
accept = 1649
rejected = 212
matrix size = 24
fillins = 0
solver = Normal
Matrix Compiler1: 972 bytes object code size  0.4/0.2/[0.1]
Matrix Compiler2: 1.48 KB object code size  0.2/0.3/[0.2]

